[General]
network = Network
sim-time-limit = 5h
**.numJobs = 20
**.source.interArrivalTime = uniform(1s,5s)
**.queue.serviceTime = uniform(1s,10s)