[General]
network = Network
sim-time-limit = 1h
**.numJobs = 10						#Number of jobs for the source to generate
**.source.interArrivalTime = 1s		#Source generates a packet every 1 second
**.queue.serviceTime = 2s			#Time for the queue to service 1 packet