[General]
network = Network
sim-time-limit = 24h
**.numJobs = -1
**.source.interArrivalTime = exponential(1s)
**.queue.serviceTime = exponential(1s)