[General]


[Config MarkovScheduler]
network = MarkovSchedulerTutorialStep
sim-time-limit = 100s

*.provider*.packetLength = 1B
*.collector*.collectionInterval = uniform(0s, 2s)
*.scheduler.transitionProbabilities = "0 1 1 0"
*.scheduler.waitIntervals = "40 4"