[General]
network = ComputerNetwork
record-eventlog = true
sim-time-limit = 600s
simtime-resolution = ps