[Config DropTailQueue]
network = DropTailQueueTutorialStep
sim-time-limit = 1000h

*.producer.packetLength = 1B
*.producer.productionInterval = exponential(1s)
*.queue.packetCapacity = 4
*.collector.collectionInterval = exponential(0.3s)