[Config DropTailQueue]
network = DropTailQueueTutorialStep
sim-time-limit = 24h

*.producer.numJobs = 20
*.producer.packetLength = 1B
*.producer.productionInterval = exponential(1s)
*.queue.packetCapacity = 4
*.collector.collectionInterval = exponential(1s)